  314
MD iter: 100
    C     -1.23761822      0.25079150     -0.21096333   
    C     -1.13851010      2.30619828     -0.34898863   
    C     -2.53039114      2.77784356     -0.20824962   
    C     -2.58375309      4.24319628      0.28009993   
    C     -4.10904422      4.89252851     -0.04805023   
    C     -3.58077979      6.22745213      0.22481421   
    C      0.28198168      0.24502812      0.01482290   
    H     -2.22003853     -0.12396244      0.30709508   
    H     -1.13286281      0.42920418     -1.46962727   
    H     -0.34068316      3.20095472      0.09626353   
    H     -0.61186178      2.47665628     -1.32521228   
    H     -3.34227202      2.59894005     -0.94803165   
    H     -2.93701069      2.25758017      0.65641713   
    H     -1.92729712      4.50098418      1.15602263   
    H     -2.03428515      4.80416831     -0.40012446   
    H     -4.67143340      4.69784368     -1.00929765   
    H     -4.61686041      4.49907067      0.84099428   
    H     -2.76854396      6.39666396      1.04883444   
    H     -3.10022657      6.47812073     -0.74071070   
    C      0.37037586     -1.23326335     -0.08280353   
    H      0.54759712      1.04312891     -1.17308550   
    H      1.03354182      0.65665938      0.52317346   
    C      1.85507455     -1.91643005     -0.10916463   
    H     -0.23798953     -1.51335139      0.63687546   
    H     -0.10034593     -1.69053327     -1.03318255   
    C      1.75781462     -3.51040240     -0.19453237   
    H      2.49251026     -1.11202659     -0.56824882   
    H      1.96498298     -1.69461969      1.00274005   
    C      3.15283862     -3.87230141      0.12014983   
    H      1.02157561     -3.70828793      0.47622981   
    H      1.31660060     -4.05548335     -1.12929446   
    C      3.40097268     -5.28571338     -0.08635127   
    H      3.73425763     -3.56245725     -0.84677597   
    H      3.56170705     -3.12041703      0.73077948   
    C      4.81798914     -5.39204759      0.25088223   
    H      2.73086438     -6.21375807      0.52006045   
    H      3.11753847     -5.43787181     -1.14542499   
    H      5.43943913     -5.17858244     -0.68328680   
    H      5.43226506     -5.51555464      1.30533163   
    C     -8.06364662     12.15538314     -0.15349433   
    C     -7.87468744     10.67570515      0.11803625   
    C     -6.41176413     10.32535705     -0.09301762   
    C     -6.52815630      8.70073919      0.00810235   
    C     -5.20471699      8.25136379      0.07093339   
    C     -5.75711094      6.90751948     -0.10492278   
    C     -9.39388919     12.78805007     -0.17019761   
    H     -7.62771233     12.48304540      0.97574583   
    H     -7.41288343     12.79171985     -0.66122833   
    H     -8.94506312     10.60216225      0.78844946   
    H     -8.12865503      9.96529364     -0.62355143   
    H     -6.30997996     10.40692981     -1.06851555   
    H     -5.56137914     11.02620336      0.58693251   
    H     -7.14709727      8.37174802      0.73071353   
    H     -6.86413199      7.78555133     -0.83187205   
    H     -4.78162729      8.53238189     -1.01496707   
    H     -4.68086670      8.53187313      1.06354218   
    H     -6.63799261      6.56888116      0.24370887   
    H     -5.73111408      6.76230614     -1.38519501   
    C     -9.32329234     14.44390279     -0.22431667   
    H     -9.52426067     12.16889834     -1.06808890   
    H    -10.04917901     12.47200686      0.40262438   
    C    -10.89164234     14.88359259      0.03454726   
    H     -8.88767787     14.57706739      0.65126882   
    H     -8.58496947     14.79609798     -0.81177295   
    C    -10.95303892     16.37707650     -0.06521318   
    H    -11.40243395     14.51388152     -0.84593228   
    H    -10.86138648     14.38078978      0.92735984   
    C    -12.35076312     16.97004463     -0.03367536   
    H    -10.25323036     16.99607521      0.46856984   
    H    -10.50524983     16.39279844     -1.07361119   
    C    -12.29852845     18.57770133      0.09766151   
    H    -12.79732740     16.27109138     -0.60524745   
    H    -12.97799207     16.73825415      0.90355525   
    C    -13.71894753     18.60363749     -0.07176195   
    H    -11.98387427     18.80129512      1.17542096   
    H    -11.87636000     18.87091508     -1.05065691   
    H    -14.26125056     18.16550313     -1.02423507   
    H    -14.22369344     18.40648884      0.96097246   
    C      9.08009908    -11.49289423     -0.11480186   
    C      7.58601109    -11.04277416      0.27603979   
    C      7.53182815     -9.57291500      0.13990925   
    C      6.26457713     -9.07424724     -0.14056764   
    C      6.07863919     -7.68265319      0.04588019   
    C      4.63737890     -7.58786745      0.21956678   
    C      9.01136499    -13.00840755      0.02512308   
    H      9.10337618    -11.42894443     -1.23399456   
    H      9.87042753    -10.80223653      0.52582842   
    H      6.77866398    -11.47242208     -0.35512382   
    H      7.18463241    -11.42708110      1.33396961   
    H      7.99017727     -9.01164842      0.93726183   
    H      8.12547573     -9.34707935     -0.71489701   
    H      5.94977649     -9.40726345     -1.15292300   
    H      5.66843486     -9.50073686      0.58948842   
    H      6.84465934     -7.63460452      0.69639385   
    H      6.34971267     -7.26573761     -0.95718121   
    H      4.27046599     -8.12041223     -0.85001318   
    H      3.96883936     -7.70808969      1.06403566   
    C     10.37055887    -13.43658650      0.05987165   
    H      8.65751901    -13.59536973      0.82734902   
    H      8.25524442    -13.11641291     -0.83562472   
    C     10.35890302    -14.91500891     -0.03899422   
    H     10.96181389    -12.47596431     -0.41946962   
    H     10.43797811    -13.22977834      1.12350432   
    C     11.69009969    -15.57844613      0.13961234   
    H      9.64196574    -15.12430445      0.76498726   
    H      9.91484237    -15.03961379     -0.85250415   
    C     11.86040539    -17.09131221     -0.05592816   
    H     12.21459206    -15.16697786     -0.84772128   
    H     12.31414128    -15.17564115      0.84766898   
    C     13.39852964    -17.87297635     -0.00195694   
    H     11.51327914    -17.57976151      0.69789098   
    H     11.64280638    -17.40465708     -1.20778232   
    C     12.92269141    -19.26469133      0.01213580   
    H     14.24384409    -17.53746102     -0.63311465   
    H     13.61349438    -17.73601416      1.01527343   
    H     12.32372896    -19.67567043      0.87660786   
    H     12.58354430    -19.61745165     -0.93701685   
    C    -18.10638350     24.77087551      0.01061737   
    C    -16.75843104     24.30505456      0.05970974   
    C    -16.67297888     22.80700015      0.02764740   
    C    -15.28435757     22.29170523     -0.24140122   
    C    -15.34132962     20.94222779      0.17310166   
    C    -13.80394147     20.83541798     -0.02306863   
    C    -18.36812569     26.24220531      0.29787643   
    H    -18.53269020     24.51555822     -1.01201629   
    H    -18.56721478     24.04330545      0.62622925   
    H    -16.20020767     24.86558685     -0.71857479   
    H    -16.52108459     24.91846018      1.02790821   
    H    -16.77458507     22.49777891      0.92499587   
    H    -17.80040824     22.38693715     -0.51916446   
    H    -14.47649052     22.36437943     -1.03949850   
    H    -14.50516865     22.91848831      0.99772567   
    H    -16.03214762     20.90872943      1.15459492   
    H    -15.73328285     20.53621380     -0.60785807   
    H    -12.76766514     21.41749109     -0.05209736   
    H    -13.67845517     20.74718107      1.06069155   
    C    -19.77693400     26.79906807      0.05692019   
    H    -18.04095148     26.58536575      1.40878009   
    H    -17.63297173     26.70068932     -0.31691775   
    C    -19.54432231     28.28423379     -0.23920328   
    H    -20.61300610     26.44941391     -0.47547750   
    H    -20.04287522     26.71401583      0.99616870   
    C    -20.94328496     29.04928712      0.10795563   
    H    -18.82946272     28.65939662      0.52110217   
    H    -19.19163410     28.73598445     -1.19422545   
    C    -20.96596775     30.52261943     -0.11032198   
    H    -21.64690832     28.82164409     -0.62367462   
    H    -21.43066524     28.87528776      1.04544487   
    C    -22.36924879     31.02167025      0.03378486   
    H    -20.42634509     31.08471317      0.56583777   
    H    -20.68900351     30.84293949     -1.13579671   
    C    -21.69551631     32.47400941     -0.24455341   
    H    -22.96764978     30.60310324     -0.68156400   
    H    -23.00853566     30.97060001      0.89554375   
    H    -21.20496972     32.93760085      0.76904164   
    H    -21.51917439     32.59713767     -1.24818205   
    C     17.37352509    -25.27306646     -0.07233937   
    C     17.52658315    -23.85340690      0.17380591   
    C     15.86200847    -23.33764807      0.10937447   
    C     15.98190387    -21.68219417      0.07847334   
    C     14.64498213    -21.27727827      0.01439372   
    C     15.05499235    -19.84068065      0.18302311   
    C     18.66834845    -25.95510839      0.03260900   
    H     16.29075164    -25.54267007      0.38490908   
    H     17.05733752    -25.24650270     -1.16448836   
    H     17.78376977    -23.74873482      1.15064000   
    H     17.73531642    -23.34940639     -0.76621617   
    H     15.64913581    -23.74861461     -0.88608737   
    H     15.45485612    -23.40124352      1.16423090   
    H     16.29129881    -21.14282789      1.02434269   
    H     16.52643070    -21.13399029     -0.69694850   
    H     14.18332185    -21.83598060     -0.89153260   
    H     14.28994906    -21.53356149      0.90282452   
    H     15.65065654    -19.43445044      0.96189708   
    H     15.14877944    -19.31888303     -1.00308734   
    C     18.71262138    -27.42249264     -0.07088402   
    H     19.03838011    -25.70783898     -0.89469296   
    H     19.32472283    -25.48441054      0.60117515   
    C     20.28264408    -27.93732340     -0.04742763   
    H     18.07389222    -27.85875074      0.74742468   
    H     18.27718692    -27.49712794     -1.07906579   
    C     20.26697988    -29.43785054      0.04145524   
    H     20.71849191    -27.95879747     -0.94728140   
    H     21.30888649    -27.58389207      0.64073374   
    C     21.64922287    -29.93705142     -0.03934288   
    H     19.92062325    -29.97222447      1.01305360   
    H     19.59590028    -29.93689829     -0.78058142   
    C     21.72930695    -31.46587357      0.15715074   
    H     22.25596435    -29.67141986     -0.73111177   
    H     22.13900731    -29.48560302      0.90900643   
    C     23.20948947    -31.43273867     -0.01077646   
    H     21.44153045    -32.21167078      0.91799346   
    H     21.28305518    -31.77383777     -0.81628639   
    H     23.68782686    -31.06849193     -0.88183848   
    H     23.85155271    -31.67776238      0.74345645   
    C    -26.11314155     38.36311083      0.11221667   
    C    -26.29078626     36.68949407     -0.12391129   
    C    -24.80672194     36.28989697     -0.25784604   
    C    -24.89798076     34.89260768     -0.07054105   
    C    -23.55447083     34.34518070     -0.18482518   
    C    -23.99129226     32.90835843     -0.06481819   
    C    -27.55176747     38.94831192      0.03636974   
    H    -25.90163495     38.21728285      1.08005573   
    H    -25.35706197     39.05977196     -0.24957691   
    H    -26.93318120     36.17267653      0.66286469   
    H    -26.55177851     36.31147286     -1.16531199   
    H    -24.22303916     36.46872400     -1.42465035   
    H    -23.91584002     36.39506668      0.30641040   
    H    -25.76758956     34.70926207      0.94751041   
    H    -25.45253570     34.19654480     -0.75424018   
    H    -22.61122150     35.46513254     -0.52549279   
    H    -23.14141619     34.26242323      0.87343589   
    H    -23.97465155     32.60739135      1.01885359   
    H    -24.64764334     32.16705233     -0.38673556   
    C    -27.71487261     40.56936130     -0.17698595   
    H    -28.08749615     38.71998632     -1.11417545   
    H    -28.25103168     38.35668042      0.49242629   
    C    -29.14253786     40.90649288      0.13295307   
    H    -27.08243658     41.13055618      0.38432770   
    H    -27.62161386     40.97885217     -1.04968670   
    C    -29.35145054     42.56879597      0.12729982   
    H    -29.89307528     40.25868688     -0.35997744   
    H    -29.31212960     40.33838500      1.29179769   
    C    -30.80604397     43.06192463      0.00474331   
    H    -28.93475508     42.69313229      0.94826139   
    H    -28.82020800     43.25740308     -0.63495589   
    C    -30.72113779     44.58298308     -0.01386506   
    H    -31.51754290     42.67701258     -0.65100454   
    H    -31.17745897     42.53555257      0.94457490   
    C    -32.26178690     45.37195658      0.07315411   
    H    -29.78383119     45.02033093      0.77601702   
    H    -30.57847210     44.91158396     -1.04108310   
    H    -32.34604151     46.54081728     -0.45639808   
    H    -32.67801549     44.79279535     -0.64106415   
    H    -32.83579975     45.43216543      1.02452986   
    C     27.18393279    -37.79266681     -0.21707655   
    C     25.82367960    -37.21963003      0.11926103   
    C     25.78467932    -35.58059747      0.06598024   
    C     24.33903954    -35.12190188      0.05906284   
    C     24.39201501    -33.70007901     -0.23903790   
    C     22.88052256    -33.62851957     -0.28273359   
    C     27.50485412    -39.23435030      0.00136388   
    H     27.54617347    -37.32927968     -1.04075380   
    H     27.85589166    -37.28633523      0.55966930   
    H     25.14261776    -37.76290051     -0.30979451   
    H     25.60966626    -37.43770626      1.15861330   
    H     26.29976790    -35.21613409      1.00462523   
    H     26.41354727    -35.36539853     -0.67753289   
    H     23.91342989    -35.75328710     -0.52917550   
    H     23.66531549    -35.18234446      0.75300886   
    H     25.04202453    -33.33425197      0.98711243   
    H     25.17927189    -33.27772012     -0.67602132   
    H     22.07101580    -33.85120021     -0.97458955   
    H     22.50526132    -33.86985704      0.59561224   
    C     28.89520591    -39.75395085     -0.00748549   
    H     26.84215915    -39.59602332      0.95773420   
    H     27.06068325    -39.85771106     -0.62993615   
    C     28.76848859    -41.25434366      0.02645608   
    H     29.39481819    -39.49628122     -0.91096687   
    H     29.42188138    -39.56409471      0.86290054   
    C     30.32780675    -41.58552066      0.22300829   
    H     28.52332514    -41.46781449      0.99328488   
    H     28.67295541    -41.78707296     -0.79845036   
    C     30.27398210    -43.43077655      0.10319665   
    H     30.89561009    -41.43660868     -0.74720726   
    H     30.66465461    -41.17600969      1.13715044   
    C     31.64138567    -43.82862695     -0.10181161   
    H     29.72580978    -44.17544154      0.44483503   
    H     30.08660508    -43.68339020     -0.88880153   
    C     31.29658361    -45.25895519     -0.05564260   
    H     31.77220802    -43.67046090     -1.10612577   
    H     32.45718202    -43.14971250      0.38791798   
    H     30.34076989    -45.74760366      0.44545751   
    H     31.01961171    -45.51957604     -1.35921945   
    C     35.84130683    -51.38969465      0.05870424   
    C     35.84111275    -49.79204560      0.22694072   
    C     34.47335971    -49.32007677      0.20750304   
    C     34.52955209    -47.82278903     -0.04492917   
    C     32.84613695    -47.39840789      0.04687219   
    C     33.34305413    -46.05786447      0.17937837   
    C     37.18689008    -52.08519253     -0.04194231   
    H     35.25274480    -51.98319368      0.84466384   
    H     35.22724330    -51.33863103     -0.75722439   
    H     36.28936757    -49.30104966      1.23963379   
    H     36.23656749    -49.31828463     -0.62043370   
    H     33.80409677    -49.55592562     -0.55752226   
    H     34.03422570    -49.92340438      1.05862225   
    H     35.29877772    -47.15113483      0.23371097   
    H     34.74469621    -47.73174405     -1.17564584   
    H     31.90691739    -47.53674526     -0.86512225   
    H     32.06307919    -47.44762107      1.05055585   
    H     33.80465035    -45.93696243      0.96770820   
    H     33.82606530    -45.43075751     -0.80328564   
    C     37.18895692    -53.51992595     -0.06054760   
    H     37.69373038    -51.91587462     -0.86292532   
    H     37.80203385    -51.72369438      0.78279880   
    C     38.70986046    -54.14649428     -0.00303297   
    H     36.49354837    -54.07044198      0.94198916   
    H     36.41875678    -53.79876504     -0.90247776   
    C     38.63205813    -55.64924691      0.07500201   
    H     39.05182719    -53.74651493     -0.89641918   
    H     39.53319530    -53.61897899      0.84485567   
    C     40.08322578    -56.19611361      0.08270052   
    H     37.81784134    -56.10779725      0.71763582   
    H     38.33026160    -55.88384804     -0.97696798   
    C     40.22474020    -57.63679696     -0.00829439   
    H     40.53166983    -55.81186863     -0.97887062   
    H     40.77865837    -55.75839002      0.76850693   
    C     41.75840757    -58.12904379      0.11114538   
    H     39.96240416    -57.91150173      1.04959211   
    H     39.22754731    -57.97270130     -0.58972590   
    H     41.73317162    -59.09538080      0.40001200   
    H     42.43105984    -57.97577746     -0.58556735   
    H     42.04555709    -57.56620319      0.93061418   

